80
DPI_2TEMPO_0m_5
O       2.160452    4.328000    1.487014
O       4.775246    7.541540    3.426452
N       3.408646    6.007264    2.400734
C       3.178097    4.991266    1.460400
C       4.611787    6.734368    2.529365
C       5.662673    6.461704    1.508082
C       5.434839    5.520364    0.493453
C       4.232804    4.774866    0.431356
C       4.021729    3.861658   -0.573293
H       3.209455    3.369056   -0.602368
C       4.996728    3.654996   -1.549111
H       4.841264    3.028139   -2.246167
N      -0.028347    6.743024    4.853586
O      -0.941402    7.137954    5.681922
C       2.319857    6.392456    3.352157
H       2.655861    7.171258    3.882070
C       1.955945    5.298554    4.346826
H       2.779663    4.932124    4.755572
H       1.489908    4.562545    3.877258
C       1.045375    5.869850    5.443512
C       0.094855    7.555606    3.590567
C       1.040279    6.860962    2.618075
H       1.285613    7.485579    1.890315
H       0.585442    6.080342    2.214076
C       1.851487    6.704072    6.475883
H       2.347678    7.409103    6.009143
H       2.479893    6.120301    6.948601
H       1.234648    7.110882    7.119768
C       0.336233    4.725094    6.156525
H      -0.315133    4.315719    5.550098
H      -0.126927    5.070609    6.948590
H       0.994842    4.053237    6.431096
C       0.595011    8.963288    3.970914
H       0.564618    9.544820    3.183141
H       1.517190    8.904828    4.298512
H       0.022009    9.334630    4.673991
C      -1.284238    7.664888    2.954067
H      -1.207204    8.108194    2.083172
H      -1.872600    8.188067    3.536476
H      -1.658573    6.767456    2.831380
O       9.691548    6.492000   -1.487014
O       7.076754    3.278460   -3.426452
N       8.443354    4.812736   -2.400734
C       8.673903    5.828734   -1.460400
C       7.240213    4.085632   -2.529365
C       6.189327    4.358296   -1.508082
C       6.417161    5.299636   -0.493453
C       7.619196    6.045134   -0.431356
C       7.830271    6.958342    0.573293
H       8.642545    7.450944    0.602368
C       6.855272    7.165004    1.549111
H       7.010736    7.791861    2.246167
N      11.880347    4.076976   -4.853586
O      12.793402    3.682046   -5.681922
C       9.532143    4.427544   -3.352157
H       9.196139    3.648742   -3.882070
C       9.896055    5.521446   -4.346826
H       9.072337    5.887876   -4.755572
H      10.362092    6.257455   -3.877258
C      10.806625    4.950150   -5.443512
C      11.757145    3.264394   -3.590567
C      10.811721    3.959038   -2.618075
H      10.566387    3.334421   -1.890315
H      11.266558    4.739658   -2.214076
C      10.000513    4.115928   -6.475883
H       9.504322    3.410897   -6.009143
H       9.372107    4.699699   -6.948601
H      10.617352    3.709118   -7.119768
C      11.515767    6.094906   -6.156525
H      12.167133    6.504281   -5.550098
H      11.978927    5.749391   -6.948590
H      10.857158    6.766763   -6.431096
C      11.256989    1.856712   -3.970914
H      11.287382    1.275180   -3.183141
H      10.334810    1.915172   -4.298512
H      11.829991    1.485370   -4.673991
C      13.136238    3.155112   -2.954067
H      13.059204    2.711806   -2.083172
H      13.724600    2.631933   -3.536476
H      13.510573    4.052544   -2.831380
