18
LIWGON
N       9.456900    1.443900    0.462600
C       8.529900    1.507300    1.127100
C       7.395800    1.579900    2.004500
C       6.476200    0.551000    2.072300
C       5.413100    0.637500    2.938900
C       5.215600    1.737800    3.762200
C       6.151000    2.756300    3.675900
C       7.218800    2.694700    2.812400
C       4.068400    1.768400    4.736700
C       4.491000    1.239800    6.098200
C       3.328900    1.209300    7.083500
C       2.668300    2.574200    7.248500
C       2.249100    3.099900    5.887000
C       3.421000    3.143700    4.904800
C       1.525500    2.523500    8.256900
C       0.952600    3.865300    8.659300
C      -0.049600    3.797900    9.788000
C      -0.681100    5.136300   10.124100
