70
C6BP_TEMPO_0m
O       6.339212    8.745235    4.903429
O       6.668916   10.585643    6.142686
O      10.811435   11.597395    1.549477
N       9.865088   11.231033    2.340187
C       5.234171    6.015323    7.056834
H       5.514670    5.132609    7.267925
C       6.013919    6.799876    6.218211
H       6.826063    6.459036    5.861837
C       5.599522    8.085218    5.905013
C       4.452797    8.622991    6.460757
H       4.201045    9.519843    6.274570
C       3.674535    7.829570    7.296944
H       2.879912    8.188170    7.674378
C       4.044413    6.505640    7.593358
C       3.135824    5.641002    8.391106
C       2.360541    6.149693    9.442769
H       2.474723    7.052688    9.714767
C       1.430567    5.353499   10.090821
H       0.915124    5.725306   10.796721
C       1.231355    4.015283    9.732146
C       2.039725    3.504376    8.718110
H       1.948991    2.592319    8.469663
C       2.975232    4.293790    8.060584
H       3.512737    3.912276    7.376773
C       0.153514    3.203285   10.427028
H      -0.687829    3.725034   10.417283
H       0.415426    3.078562   11.373579
C      -0.119933    1.838234    9.819852
H       0.704585    1.293325    9.876049
H      -0.338851    1.953869    8.861228
C      -1.262377    1.075356   10.497681
H      -2.062105    1.658518   10.515953
H      -1.482860    0.284028    9.945483
C      -0.971964    0.608664   11.917222
H      -0.796961    1.398923   12.487448
H      -0.153384    0.051683   11.912783
C      -2.117020   -0.195508   12.520338
H      -2.926425    0.373484   12.554473
H      -2.314311   -0.965903   11.930514
C      -1.815292   -0.709483   13.920119
H      -1.032745   -1.299012   13.889964
H      -2.587560   -1.209353   14.258167
H      -1.630961    0.047902   14.513679
C       6.824900    9.990968    5.118093
C       7.562506   10.507627    3.896702
H       6.886093   10.825954    3.232354
C       8.433440   11.692362    4.299772
H       9.076529   11.393246    4.990675
H       7.857219   12.386510    4.707146
C       9.215836   12.321179    3.139018
C       8.317393   13.170698    2.224599
H       8.813732   13.416797    1.416185
H       8.042591   13.982655    2.699241
H       7.523074   12.653393    1.975204
C      10.324751   13.203149    3.711815
H      10.813661   13.631196    2.978277
H      10.941710   12.652074    4.237647
H       9.930564   13.891504    4.287266
C       8.422818    9.429632    3.229972
H       7.840537    8.677207    2.956756
H       9.073089    9.083240    3.891369
C       9.186615    9.938566    2.001814
C       8.264612   10.142460    0.788273
H       8.760564   10.593123    0.073386
H       7.496694   10.691664    1.050093
H       7.949291    9.271318    0.468010
C      10.270657    8.920347    1.642597
H       9.858992    8.043325    1.495771
H      10.917134    8.859199    2.376542
H      10.729814    9.206819    0.825684
